units	metal
atom_style atomic
newton on

read_data au20_crystal.data
Reading data file ...
  orthogonal box = (0 0 0) to (20 20 20)
  reading atoms ...
  100 atoms

pair_style	flare
pair_coeff	* * lmp.flare
Reading potential file lmp.flare with DATE: Fri

compute unc all flare/std/atom L_inv_lmp.flare sparse_desc_lmp.flare
Reading potential file L_inv_lmp.flare with DATE: Fri
Reading potential file sparse_desc_lmp.flare with DATE: Fri
compute MaxUnc all reduce max c_unc

mass            1 196.97
mass            2 32.06
mass            3 12.011
mass            4 1.00

min_style cg
minimize 1.0e-4 1.0e-6 100 1000
Step          Temp          E_pair         E_mol          TotEng         Press
0   0             -339.92446      0             -339.92446      505.06309
Loop_ time of 2.05771 on 16 procs for 3 steps with 100 atoms

Minimization stats:
  Stopping criterion = energy tolerance
  Energy initial, next-to-last, final =
  Force two-norm initial, final = 1.3983477 1.0459839
  Force max component initial, final = 0.42072168 0.18212607
  Final line search alpha, max atom move = 0.12497184 0.022760631
  Iterations, force evaluations = 3 6

velocity all create 400.0 4928459 rot yes dist gaussian
fix 1 all nvt temp 400 400 $(100.0*dt)
fix 1 all nvt temp 400 400 0.10000000000000000555
dump dump_all all custom 10 output.dump id type x y z fx fy fz c_unc
thermo 10
thermo_style custom step temp pe etotal press vol c_MaxUnc

run 100000
Step          Temp          PotEng         TotEng         Press          Volume        c_MaxUnc
3   400           -340.05879     -334.94009      1578.7286      8000           0.0017450573
Averages over the last 5001 of 10002 rows, steps 50010 to 100003:
Temp PotEng TotEng Press Volume c_MaxUnc
401.599 -334.903 -329.764 -12.6828 8000 0.0091187
Loop time of 174848 on 16 procs for 100000 steps with 100 atoms
